&HEAD CHID='tier2_7_steel_FR_nostyro', TITLE='T2-7: NO_STYRO - Steel + FR-HDPE + No Styrofoam' /

! --- PARAMETRIC STUDY: TIER 2 - SIMULATION 7 ---
! Scaffolding: STEEL (inert)
! Safety Net: FR-HDPE (compliant)
! Windows: NONE (no sealing - open windows)
! PURPOSE: Isolate styrofoam contribution
! Resolution: 0.2m (20cm) -> ~630,000 Cells
! Decomposition: Sliced vertically into 45 meshes
! Each Mesh Height: 2.0m (90m / 45)
! Cells per Mesh: 50 x 28 x 10 = 14,000 cells

! --- MESH DEFINITIONS (1 to 45) ---
&MESH IJK=50,28,10, XB=0.0,10.0, 0.0,5.6, 0.0,2.0, MPI_PROCESS=0 /
&MESH IJK=50,28,10, XB=0.0,10.0, 0.0,5.6, 2.0,4.0, MPI_PROCESS=1 /
&MESH IJK=50,28,10, XB=0.0,10.0, 0.0,5.6, 4.0,6.0, MPI_PROCESS=2 /
&MESH IJK=50,28,10, XB=0.0,10.0, 0.0,5.6, 6.0,8.0, MPI_PROCESS=3 /
&MESH IJK=50,28,10, XB=0.0,10.0, 0.0,5.6, 8.0,10.0, MPI_PROCESS=4 /
&MESH IJK=50,28,10, XB=0.0,10.0, 0.0,5.6, 10.0,12.0, MPI_PROCESS=5 /
&MESH IJK=50,28,10, XB=0.0,10.0, 0.0,5.6, 12.0,14.0, MPI_PROCESS=6 /
&MESH IJK=50,28,10, XB=0.0,10.0, 0.0,5.6, 14.0,16.0, MPI_PROCESS=7 /
&MESH IJK=50,28,10, XB=0.0,10.0, 0.0,5.6, 16.0,18.0, MPI_PROCESS=8 /
&MESH IJK=50,28,10, XB=0.0,10.0, 0.0,5.6, 18.0,20.0, MPI_PROCESS=9 /
&MESH IJK=50,28,10, XB=0.0,10.0, 0.0,5.6, 20.0,22.0, MPI_PROCESS=10 /
&MESH IJK=50,28,10, XB=0.0,10.0, 0.0,5.6, 22.0,24.0, MPI_PROCESS=11 /
&MESH IJK=50,28,10, XB=0.0,10.0, 0.0,5.6, 24.0,26.0, MPI_PROCESS=12 /
&MESH IJK=50,28,10, XB=0.0,10.0, 0.0,5.6, 26.0,28.0, MPI_PROCESS=13 /
&MESH IJK=50,28,10, XB=0.0,10.0, 0.0,5.6, 28.0,30.0, MPI_PROCESS=14 /
&MESH IJK=50,28,10, XB=0.0,10.0, 0.0,5.6, 30.0,32.0, MPI_PROCESS=15 /
&MESH IJK=50,28,10, XB=0.0,10.0, 0.0,5.6, 32.0,34.0, MPI_PROCESS=16 /
&MESH IJK=50,28,10, XB=0.0,10.0, 0.0,5.6, 34.0,36.0, MPI_PROCESS=17 /
&MESH IJK=50,28,10, XB=0.0,10.0, 0.0,5.6, 36.0,38.0, MPI_PROCESS=18 /
&MESH IJK=50,28,10, XB=0.0,10.0, 0.0,5.6, 38.0,40.0, MPI_PROCESS=19 /
! ... 25 like lines cut

&TIME T_END=3600.0 /
&DUMP NFRAMES=120 /
&MISC CFL_MAX=0.8 /

! --- SPECIES & REACTIONS ---
&REAC ID='WOOD_REAC', FUEL='WOOD_VAPOR', C=6, H=10, O=5, SOOT_YIELD=0.02, CO_YIELD=0.005 /
&REAC ID='PE_REAC', FUEL='PE_VAPOR', C=2, H=4, SOOT_YIELD=0.030, CO_YIELD=0.010, RADIATIVE_FRACTION=0.42 /

! --- MATERIALS ---
&MATL ID='CONCRETE', DENSITY=2400.0, CONDUCTIVITY=1.6, SPECIFIC_HEAT=0.75 /
&MATL ID='STEEL', DENSITY=7850.0, CONDUCTIVITY=45.0, SPECIFIC_HEAT=0.46, EMISSIVITY=0.7 /
&MATL ID='HDPE_FR', DENSITY=950.0, CONDUCTIVITY=0.48, SPECIFIC_HEAT=2.3,
      N_REACTIONS=1, REFERENCE_TEMPERATURE=475.0, HEAT_OF_REACTION=800.0,
      NU_SPEC=1.0, SPEC_ID='PE_VAPOR' /

! --- SURFACES ---
&SURF ID='WALL_SURF', MATL_ID='CONCRETE', THICKNESS=0.2, COLOR='GRAY' /
&SURF ID='STEEL_SURF', MATL_ID='STEEL', THICKNESS=0.005, COLOR='GRAY' /
&SURF ID='FR_NET_SURF', MATL_ID='HDPE_FR', THICKNESS=0.0015, BURN_AWAY=.TRUE., COLOR='RED' /

&SURF ID='IGNITOR', HRRPUA=2500.0, COLOR='RED' /


! --- GEOMETRY ---
&OBST XB=0.0,10.0, 5.05,5.25, 0.0,90.0, SURF_ID='WALL_SURF' /
&OBST XB=0.0,10.0, 4.625,4.673, 0.0,90.0, SURF_ID='STEEL_SURF' /  ! Steel scaffold: 48mm dia (BS1139)
&OBST XB=0.0,10.0, 4.2,4.22, 0.0,90.0, SURF_ID='FR_NET_SURF' /

! NO WINDOW OBSTRUCTIONS - removed to measure styrofoam contribution

&VENT XB=4.0,6.0, 4.25,5.0, 0.0,0.0, SURF_ID='IGNITOR' /
&SLCF PBY=4.9, QUANTITY='TEMPERATURE' /
&SLCF PBY=4.9, QUANTITY='VELOCITY', VECTOR=.TRUE. /
&SLCF PBX=5.0, QUANTITY='HRRPUV' /
&TAIL /
